8
 g-Tensor orientation as XYZ file; He=chosen origin Ne=g1 Ar=g2 Kr=g3
C       -0.168717313      0.001518115     -0.000769830
Cl       1.516637317     -0.013888148      0.006415061
H       -0.682731972     -0.945410985     -0.006078554
H       -0.665188031      0.957781018      0.000433323
He       0.000000000      0.000000000      0.000000000
Ne      -0.003356551     -0.002683185      0.793754181
Ar       0.793720259     -0.007824735      0.003329957
Kr       0.007813364      0.793722709      0.002716119
