4
Coordinates from ORCA-job C-Cl-H-H_radical_EPR
  C   -0.16871731308224      0.00151811466923     -0.00076982975595
  Cl  1.51663731678331     -0.01388814767977      0.00641506107760
  H   -0.68273197236490     -0.94541098478116     -0.00607855402633
  H   -0.66518803133617      0.95778101779171      0.00043332270467
