4
Coordinates from ORCA-job C-F-F-F_radical_EPR
  C   -0.00052424094747     -0.00107000960143      0.29561552466722
  F   -0.73134639037364     -1.01609044873229     -0.10235728037195
  F   -0.51429516063037      1.14206203600107     -0.09535720493166
  F   1.24616579195148     -0.12490157766735     -0.09690103936361
