4
Coordinates from ORCA-job C-H-H-H_radical_EPR
  C   0.00018742722840     -0.00029640726846      0.00006686667710
  H   1.05183040987633     -0.24296320706512     -0.00088878955291
  H   -0.73613810904236     -0.78944575367461     -0.00019320586498
  H   -0.31587972806237      1.03170536800819      0.00101512874079
