8
 g-Tensor orientation as XYZ file; He=chosen origin Ne=g1 Ar=g2 Kr=g3
C       -0.000415906      0.152736555      0.131319515
Cl       1.463555303     -0.675848335     -0.027898334
Cl      -1.458563802     -0.686669972     -0.024771897
H       -0.004575595      1.210781752     -0.079649284
He       0.000000000      0.000000000      0.000000000
Ne       0.000790813      0.015872382      0.793606708
Ar      -0.793753696     -0.004297184      0.000876904
Kr       0.004313858     -0.793595468      0.015867858
