4
Coordinates from ORCA-job C-Cl-Cl-F_radical_EPR
  C   -0.00231279131506      0.08942098943118      0.26431128656956
  Cl  1.48166095227311     -0.68238162871646     -0.07900408574969
  Cl  -1.44209722827222     -0.76270002664842     -0.07699739348199
  F   -0.03725093268583      1.35566066593369     -0.10930980733788
